Version 4
SHEET 1 1752 744
WIRE 240 -80 -128 -80
WIRE 288 -80 240 -80
WIRE 416 -80 352 -80
WIRE 480 -80 416 -80
WIRE 240 16 240 -80
WIRE 288 16 240 16
WIRE 416 16 416 -80
WIRE 416 16 368 16
WIRE -128 96 -128 -80
WIRE -16 96 -128 96
WIRE 80 96 48 96
WIRE 144 96 80 96
WIRE 256 96 208 96
WIRE 1408 128 1376 128
WIRE -128 144 -128 96
WIRE 1312 144 1264 144
WIRE 1408 160 1376 160
WIRE 832 176 784 176
WIRE 1312 176 1296 176
WIRE 80 192 80 96
WIRE 144 192 80 192
WIRE 256 192 256 96
WIRE 256 192 224 192
WIRE 320 192 256 192
WIRE 416 192 320 192
WIRE 480 192 416 192
WIRE 720 192 704 192
WIRE 1472 192 1376 192
WIRE 1552 192 1472 192
WIRE 1680 192 1632 192
WIRE 832 208 784 208
WIRE 720 224 672 224
WIRE 320 240 320 192
WIRE 416 240 416 192
WIRE 864 240 784 240
WIRE 1008 240 864 240
WIRE 1680 240 1680 192
WIRE 1008 256 1008 240
WIRE -128 272 -128 224
WIRE 1296 336 1296 176
WIRE 1344 336 1296 336
WIRE 1472 336 1472 192
WIRE 1472 336 1424 336
WIRE 672 352 672 224
WIRE 864 352 864 240
WIRE 864 352 672 352
WIRE 1008 352 1008 336
WIRE 1136 352 1008 352
WIRE 320 368 320 304
WIRE 368 368 320 368
WIRE 416 368 416 320
WIRE 416 368 368 368
WIRE 1008 368 1008 352
WIRE 368 400 368 368
WIRE -400 432 -400 400
WIRE 1296 432 1296 336
WIRE 1344 432 1296 432
WIRE 1008 464 1008 448
WIRE 1136 464 1008 464
WIRE 1008 480 1008 464
WIRE 1296 496 1296 432
WIRE -400 560 -400 512
WIRE -320 560 -400 560
WIRE -320 576 -320 560
WIRE 1008 576 1008 560
WIRE -400 656 -400 640
FLAG 368 400 0
FLAG 480 192 V2
FLAG -128 272 0
FLAG 480 -80 V1
FLAG -320 576 0
FLAG -400 400 VCC
FLAG 832 176 VCC
FLAG -400 656 VEE
FLAG 832 208 VEE
FLAG 1136 352 X1
FLAG 1136 464 X2
FLAG 1408 128 VCC
FLAG 1408 160 VEE
FLAG 1680 304 0
FLAG 1296 576 0
FLAG 1424 432 VEE
FLAG 1008 576 0
FLAG 1264 144 X2
FLAG 704 192 V1
SYMBOL cap 208 80 R90
WINDOW 0 0 32 VBottom 2
WINDOW 3 32 32 VTop 2
SYMATTR InstName C1
SYMATTR Value 3p
SYMBOL cap 336 304 R180
WINDOW 0 24 56 Left 2
WINDOW 3 24 8 Left 2
SYMATTR InstName C2
SYMATTR Value 30p
SYMBOL res 432 336 R180
WINDOW 0 36 76 Left 2
WINDOW 3 36 40 Left 2
SYMATTR InstName R3
SYMATTR Value 200k
SYMBOL res 128 208 R270
WINDOW 0 32 56 VTop 2
WINDOW 3 0 56 VBottom 2
SYMATTR InstName R4
SYMATTR Value 1800k
SYMBOL cap 48 80 R90
WINDOW 0 0 32 VBottom 2
WINDOW 3 32 32 VTop 2
SYMATTR InstName C6
SYMATTR Value 100n
SYMBOL voltage -128 128 R0
WINDOW 3 -277 97 Left 2
WINDOW 123 0 0 Left 0
WINDOW 39 0 0 Left 0
SYMATTR Value SINE(0 1 1k 0 0 0 100)
SYMATTR InstName V1
SYMBOL cap 352 -96 R90
WINDOW 0 0 32 VBottom 2
WINDOW 3 32 32 VTop 2
SYMATTR InstName C7
SYMATTR Value 220p
SYMBOL res 384 0 R90
WINDOW 0 0 56 VBottom 2
WINDOW 3 32 56 VTop 2
SYMATTR InstName R5
SYMATTR Value 100k
SYMBOL AutoGenerated\\TL084 752 208 R0
SYMATTR InstName U1
SYMBOL voltage -400 416 R0
WINDOW 123 0 0 Left 0
WINDOW 39 0 0 Left 0
SYMATTR InstName V2
SYMATTR Value 3.3
SYMBOL voltage -400 544 R0
WINDOW 0 24 96 Left 2
WINDOW 3 24 16 Left 2
WINDOW 123 0 0 Left 0
WINDOW 39 0 0 Left 0
SYMATTR InstName V3
SYMATTR Value 3.3
SYMBOL res 992 240 R0
SYMATTR InstName R6
SYMATTR Value 300
SYMBOL res 992 352 R0
SYMATTR InstName R7
SYMATTR Value 180
SYMBOL AutoGenerated\\TL084 1344 160 R0
SYMATTR InstName U2
SYMBOL res 1440 320 R90
WINDOW 0 0 56 VBottom 2
WINDOW 3 32 56 VTop 2
SYMATTR InstName R8
SYMATTR Value 100
SYMBOL res 1440 416 R90
WINDOW 0 0 56 VBottom 2
WINDOW 3 32 56 VTop 2
SYMATTR InstName R9
SYMATTR Value 500
SYMBOL res 1312 592 R180
WINDOW 0 36 76 Left 2
WINDOW 3 36 40 Left 2
SYMATTR InstName R10
SYMATTR Value 2k
SYMBOL res 1536 208 R270
WINDOW 0 32 56 VTop 2
WINDOW 3 0 56 VBottom 2
SYMATTR InstName R11
SYMATTR Value 120
SYMBOL cap 1664 240 R0
SYMATTR InstName C8
SYMATTR Value 120p
SYMBOL res 992 464 R0
SYMATTR InstName R12
SYMATTR Value 120
TEXT -408 728 Left 2 !.tran 0 0.1 0
TEXT 352 -152 Left 2 ;multiplica sinal por 1 - Indicado para sinais pequenos até 1.6V
TEXT 296 120 Left 2 ;multiplica sinal por 100m
TEXT 1096 320 Left 2 ;Sinal x 1/2
TEXT 1096 424 Left 2 ;Sinal x 1/5
TEXT 1560 112 Left 2 ;700mV offset
TEXT 856 -240 Left 2 ;max 10V -> V2 e X1
TEXT 856 -200 Left 2 ;max 16V -> V2 e X2
